18

      H                    3.361137   -1.238078    0.000000
      C                    2.411654   -0.699292    0.000000
      H                    1.237065   -2.480854    0.000000
      C                    1.232905   -1.388655    0.000000
      C                    1.232905    1.388655    0.000000
      C                    0.000000   -0.712406    0.000000
      C                    2.411654    0.699292    0.000000
      C                    0.000000    0.712406    0.000000
      C                   -1.232905   -1.388655    0.000000
      H                    3.361137    1.238078    0.000000
      H                   -1.237065    2.480854    0.000000
      H                    1.237065    2.480854    0.000000
      C                   -2.411654   -0.699292    0.000000
      H                   -1.237065   -2.480854    0.000000
      H                   -3.361137   -1.238078    0.000000
      C                   -2.411654    0.699292    0.000000
      H                   -3.361137    1.238078    0.000000
      C                   -1.232905    1.388655    0.000000
